PV_Scenarios/PV_combined/scenario_10_combined/PV_combined20per.txt
New PVSystem.PV_1 phases=1 bus1=G2000SK7800_N274150_sec_2.2 kV=0.24 kVA=4.3661 irradiance=1 Pmpp=3.6384 %cutin=0.1 %cutout=0.1
New PVSystem.PV_2 phases=1 bus1=G2000SO2200_N274207_sec_1.3 kV=0.24 kVA=5.28 irradiance=1 Pmpp=4.4 %cutin=0.1 %cutout=0.1
New PVSystem.PV_3 phases=1 bus1=G2000UJ6500_N283747_sec_5.2 kV=0.24 kVA=8.16 irradiance=1 Pmpp=6.8 %cutin=0.1 %cutout=0.1
New PVSystem.PV_4 phases=1 bus1=G2000WM3200_N283819_sec_3.3 kV=0.24 kVA=3.36 irradiance=1 Pmpp=2.8 %cutin=0.1 %cutout=0.1
New PVSystem.PV_5 phases=1 bus1=G2000XN9500_N283851_sec_2.3 kV=0.24 kVA=2.64 irradiance=1 Pmpp=2.2 %cutin=0.1 %cutout=0.1
New PVSystem.PV_6 phases=1 bus1=G2000XO7000_N283918_sec_1.3 kV=0.24 kVA=4.92 irradiance=1 Pmpp=4.1 %cutin=0.1 %cutout=0.1
New PVSystem.PV_7 phases=1 bus1=G2001RB7800_N274248_sec_3.3 kV=0.24 kVA=4.92 irradiance=1 Pmpp=4.1 %cutin=0.1 %cutout=0.1
New PVSystem.PV_8 phases=1 bus1=G2001RM4100_N274534_sec_2.2 kV=0.24 kVA=7.56 irradiance=1 Pmpp=6.3 %cutin=0.1 %cutout=0.1
New PVSystem.PV_9 phases=1 bus1=G2001SL1400_N274531_sec_2.2 kV=0.24 kVA=8.04 irradiance=1 Pmpp=6.7 %cutin=0.1 %cutout=0.1
New PVSystem.PV_10 phases=1 bus1=G2001TH0100_N274396_sec_2.2 kV=0.24 kVA=6.7709 irradiance=1 Pmpp=5.6424 %cutin=0.1 %cutout=0.1
New PVSystem.PV_11 phases=1 bus1=G2001UC6800_N284008_sec_6.3 kV=0.24 kVA=4.56 irradiance=1 Pmpp=3.8 %cutin=0.1 %cutout=0.1
New PVSystem.PV_12 phases=1 bus1=G2001UJ5100_N284204_sec_2.2 kV=0.24 kVA=6.9004 irradiance=1 Pmpp=5.7504 %cutin=0.1 %cutout=0.1
New PVSystem.PV_13 phases=1 bus1=G2001VE0100_N284048_sec_2.3 kV=0.24 kVA=9.916 irradiance=1 Pmpp=8.2633 %cutin=0.1 %cutout=0.1
New PVSystem.PV_14 phases=1 bus1=G2001WD5300_N284012_sec_2.3 kV=0.24 kVA=0.87363 irradiance=1 Pmpp=0.72802 %cutin=0.1 %cutout=0.1
New PVSystem.PV_15 phases=1 bus1=G2001WD5300_N284012_sec_3.3 kV=0.24 kVA=5.4 irradiance=1 Pmpp=4.5 %cutin=0.1 %cutout=0.1
New PVSystem.PV_16 phases=1 bus1=G2001WG8300_N284116_sec_3.3 kV=0.24 kVA=5.76 irradiance=1 Pmpp=4.8 %cutin=0.1 %cutout=0.1
New PVSystem.PV_17 phases=1 bus1=G2001YA0800_N283921_sec_5.3 kV=0.24 kVA=5.88 irradiance=1 Pmpp=4.9 %cutin=0.1 %cutout=0.1
New PVSystem.PV_18 phases=1 bus1=G2100AE4800_N283558_sec_7.3 kV=0.24 kVA=3.24 irradiance=1 Pmpp=2.7 %cutin=0.1 %cutout=0.1
New PVSystem.PV_19 phases=1 bus1=G2100BG5600_N283598_sec_5.3 kV=0.24 kVA=5.52 irradiance=1 Pmpp=4.6 %cutin=0.1 %cutout=0.1
New PVSystem.PV_20 phases=1 bus1=G2100BJ0700_N283696_sec_7.2 kV=0.24 kVA=10.92 irradiance=1 Pmpp=9.1 %cutin=0.1 %cutout=0.1
New PVSystem.PV_21 phases=1 bus1=G2100CH7400_N283632_sec_3.3 kV=0.24 kVA=2.52 irradiance=1 Pmpp=2.1 %cutin=0.1 %cutout=0.1
New PVSystem.PV_22 phases=1 bus1=G2100CH7400_N283632_sec_24.3 kV=0.24 kVA=2.4 irradiance=1 Pmpp=2 %cutin=0.1 %cutout=0.1
New PVSystem.PV_23 phases=1 bus1=G2100CN4900_N283858_sec_12.3 kV=0.24 kVA=5.04 irradiance=1 Pmpp=4.2 %cutin=0.1 %cutout=0.1
New PVSystem.PV_24 phases=1 bus1=G2100CN5000_N283837_sec_1.3 kV=0.24 kVA=5.16 irradiance=1 Pmpp=4.3 %cutin=0.1 %cutout=0.1
New PVSystem.PV_25 phases=1 bus1=G2100DG6300_N283589_sec_2.3 kV=0.24 kVA=2.52 irradiance=1 Pmpp=2.1 %cutin=0.1 %cutout=0.1
New PVSystem.PV_26 phases=1 bus1=G2100DG6300_N283589_sec_12.3 kV=0.24 kVA=3 irradiance=1 Pmpp=2.5 %cutin=0.1 %cutout=0.1
New PVSystem.PV_27 phases=1 bus1=G2100DL9400_N283794_sec_1.3 kV=0.24 kVA=3.24 irradiance=1 Pmpp=2.7 %cutin=0.1 %cutout=0.1
New PVSystem.PV_28 phases=1 bus1=G2100EK1100_N292334_sec_2.2 kV=0.24 kVA=6.5409 irradiance=1 Pmpp=5.4507 %cutin=0.1 %cutout=0.1
New PVSystem.PV_29 phases=1 bus1=G2100EO2100_N292498_sec_5.3 kV=0.24 kVA=2.88 irradiance=1 Pmpp=2.4 %cutin=0.1 %cutout=0.1
New PVSystem.PV_30 phases=3 conn = delta bus1=G2100FG1700_N292304_sec_9.1.2.3 kV=0.48 kVA=12.36 irradiance=1 Pmpp=10.3 %cutin=0.1 %cutout=0.1
New PVSystem.PV_31 phases=3 conn = delta bus1=G2100FJ3800_N292380_sec_8.1.2.3 kV=0.48 kVA=5.64 irradiance=1 Pmpp=4.7 %cutin=0.1 %cutout=0.1
New PVSystem.PV_32 phases=1 bus1=G2100GJ1600_N292364_sec_1.1 kV=0.24 kVA=16.2397 irradiance=1 Pmpp=13.5331 %cutin=0.1 %cutout=0.1
New PVSystem.PV_33 phases=1 bus1=G2100GN7300_N292464_sec_2.1 kV=0.24 kVA=3.48 irradiance=1 Pmpp=2.9 %cutin=0.1 %cutout=0.1
New PVSystem.PV_34 phases=1 bus1=G2100HM3200_N292420_sec_3.3 kV=0.24 kVA=1.2 irradiance=1 Pmpp=1 %cutin=0.1 %cutout=0.1
New PVSystem.PV_35 phases=1 bus1=G2100HM3200_N292420_sec_4.3 kV=0.24 kVA=2.88 irradiance=1 Pmpp=2.4 %cutin=0.1 %cutout=0.1
New PVSystem.PV_36 phases=1 bus1=G2100HM3200_N292420_sec_24.3 kV=0.24 kVA=2.64 irradiance=1 Pmpp=2.2 %cutin=0.1 %cutout=0.1
New PVSystem.PV_37 phases=1 bus1=G2100HM9900_N292433_sec_1.3 kV=0.24 kVA=1.92 irradiance=1 Pmpp=1.6 %cutin=0.1 %cutout=0.1
New PVSystem.PV_38 phases=1 bus1=G2100HM9900_N292433_sec_17.3 kV=0.24 kVA=0.48 irradiance=1 Pmpp=0.4 %cutin=0.1 %cutout=0.1
New PVSystem.PV_39 phases=3 conn = delta bus1=G2100HN2600_N292488_sec_9.1.2.3 kV=0.48 kVA=3.24 irradiance=1 Pmpp=2.7 %cutin=0.1 %cutout=0.1
New PVSystem.PV_40 phases=3 conn = delta bus1=G2100HN2900_N292508_sec_1.1.2.3 kV=0.48 kVA=48.24 irradiance=1 Pmpp=40.2 %cutin=0.1 %cutout=0.1
New PVSystem.PV_41 phases=1 bus1=G2100HN5600_N292453_sec_60.3 kV=0.24 kVA=2.76 irradiance=1 Pmpp=2.3 %cutin=0.1 %cutout=0.1
New PVSystem.PV_42 phases=1 bus1=G2100IL1000_N292412_sec_37.3 kV=0.24 kVA=1.56 irradiance=1 Pmpp=1.3 %cutin=0.1 %cutout=0.1
New PVSystem.PV_43 phases=3 conn = delta bus1=G2100IL4000_N292400_sec_1.1.2.3 kV=0.48 kVA=23.9725 irradiance=1 Pmpp=19.9771 %cutin=0.1 %cutout=0.1
New PVSystem.PV_44 phases=1 bus1=G2100IN2700_N292475_sec_19.3 kV=0.24 kVA=2.64 irradiance=1 Pmpp=2.2 %cutin=0.1 %cutout=0.1
New PVSystem.PV_45 phases=1 bus1=G2100IN2700_N292475_sec_22.3 kV=0.24 kVA=2.52 irradiance=1 Pmpp=2.1 %cutin=0.1 %cutout=0.1
New PVSystem.PV_46 phases=3 conn = delta bus1=G2100NI4800_N300455_sec_5.1.2.3 kV=0.48 kVA=37.0382 irradiance=1 Pmpp=30.8652 %cutin=0.1 %cutout=0.1
New PVSystem.PV_47 phases=1 bus1=G2100ON6900_N300568_sec_2.1 kV=0.24 kVA=7.44 irradiance=1 Pmpp=6.2 %cutin=0.1 %cutout=0.1
New PVSystem.PV_48 phases=1 bus1=G2100PN0800_N300563_sec_6.1 kV=0.24 kVA=7.08 irradiance=1 Pmpp=5.9 %cutin=0.1 %cutout=0.1
New PVSystem.PV_49 phases=1 bus1=G2100PO8100_N300593_sec_2.1 kV=0.24 kVA=6.96 irradiance=1 Pmpp=5.8 %cutin=0.1 %cutout=0.1
New PVSystem.PV_50 phases=1 bus1=G2100QP2300_N300614_sec_6.1 kV=0.24 kVA=3.84 irradiance=1 Pmpp=3.2 %cutin=0.1 %cutout=0.1
New PVSystem.PV_51 phases=1 bus1=G2100RN1800_N300557_sec_2.3 kV=0.24 kVA=2.76 irradiance=1 Pmpp=2.3 %cutin=0.1 %cutout=0.1
New PVSystem.PV_52 phases=1 bus1=G2100SO3700_N312462_sec_1.3 kV=0.24 kVA=2.64 irradiance=1 Pmpp=2.2 %cutin=0.1 %cutout=0.1
New PVSystem.PV_53 phases=1 bus1=G2100SO3700_N312462_sec_9.3 kV=0.24 kVA=1.8 irradiance=1 Pmpp=1.5 %cutin=0.1 %cutout=0.1
New PVSystem.PV_54 phases=1 bus1=G2100SP2100_N312536_sec_5.2 kV=0.24 kVA=2.4653 irradiance=1 Pmpp=2.0544 %cutin=0.1 %cutout=0.1
New PVSystem.PV_55 phases=1 bus1=G2101AC1300_N283976_sec_1.2 kV=0.24 kVA=11.4 irradiance=1 Pmpp=9.5 %cutin=0.1 %cutout=0.1
New PVSystem.PV_56 phases=1 bus1=G2101AC2700_N284001_sec_1.3 kV=0.24 kVA=3.96 irradiance=1 Pmpp=3.3 %cutin=0.1 %cutout=0.1
New PVSystem.PV_57 phases=1 bus1=G2101AL8800_N284268_sec_1.1 kV=0.24 kVA=5.9048 irradiance=1 Pmpp=4.9206 %cutin=0.1 %cutout=0.1
New PVSystem.PV_58 phases=1 bus1=G2101BA6700_N283900_sec_3.1 kV=0.24 kVA=4.08 irradiance=1 Pmpp=3.4 %cutin=0.1 %cutout=0.1
New PVSystem.PV_59 phases=1 bus1=G2101BC7200_N283931_sec_7.1 kV=0.24 kVA=3.72 irradiance=1 Pmpp=3.1 %cutin=0.1 %cutout=0.1
New PVSystem.PV_60 phases=1 bus1=G2101CF1100_N284085_sec_1.2 kV=0.24 kVA=5.672 irradiance=1 Pmpp=4.7267 %cutin=0.1 %cutout=0.1
New PVSystem.PV_61 phases=1 bus1=G2101EC8400_N292647_sec_1.1 kV=0.24 kVA=2.76 irradiance=1 Pmpp=2.3 %cutin=0.1 %cutout=0.1
New PVSystem.PV_62 phases=1 bus1=G2101EO8900_N292863_sec_1.1 kV=0.24 kVA=5.2321 irradiance=1 Pmpp=4.3601 %cutin=0.1 %cutout=0.1
New PVSystem.PV_63 phases=1 bus1=G2101FL7900_N292821_sec_3.2 kV=0.24 kVA=10.4107 irradiance=1 Pmpp=8.6756 %cutin=0.1 %cutout=0.1
New PVSystem.PV_64 phases=1 bus1=G2101GC3200_N292623_sec_5.1 kV=0.24 kVA=2.16 irradiance=1 Pmpp=1.8 %cutin=0.1 %cutout=0.1
New PVSystem.PV_65 phases=1 bus1=G2101GD1300_N292637_sec_14.1 kV=0.24 kVA=5.28 irradiance=1 Pmpp=4.4 %cutin=0.1 %cutout=0.1
New PVSystem.PV_66 phases=1 bus1=G2101HA1800_N292557_sec_2.3 kV=0.24 kVA=0.48 irradiance=1 Pmpp=0.4 %cutin=0.1 %cutout=0.1
New PVSystem.PV_67 phases=1 bus1=G2101HD1100_N292645_sec_13.1 kV=0.24 kVA=3.24 irradiance=1 Pmpp=2.7 %cutin=0.1 %cutout=0.1
New PVSystem.PV_68 phases=1 bus1=G2101HD1100_N292645_sec_15.1 kV=0.24 kVA=3.96 irradiance=1 Pmpp=3.3 %cutin=0.1 %cutout=0.1
New PVSystem.PV_69 phases=1 bus1=G2101HD3500_N292652_sec_3.1 kV=0.24 kVA=4.68 irradiance=1 Pmpp=3.9 %cutin=0.1 %cutout=0.1
New PVSystem.PV_70 phases=1 bus1=G2101HI2400_N292772_sec_1.2 kV=0.24 kVA=13.1749 irradiance=1 Pmpp=10.9791 %cutin=0.1 %cutout=0.1
New PVSystem.PV_71 phases=1 bus1=G2101KA0900_N300672_sec_22.1 kV=0.24 kVA=3.12 irradiance=1 Pmpp=2.6 %cutin=0.1 %cutout=0.1
New PVSystem.PV_72 phases=1 bus1=G2101KA2300_N300631_sec_13.1 kV=0.24 kVA=4.08 irradiance=1 Pmpp=3.4 %cutin=0.1 %cutout=0.1
New PVSystem.PV_73 phases=1 bus1=G2101KA3900_N300679_sec_17.1 kV=0.24 kVA=3.36 irradiance=1 Pmpp=2.8 %cutin=0.1 %cutout=0.1
New PVSystem.PV_74 phases=1 bus1=G2101KA6200_N300623_sec_10.1 kV=0.24 kVA=1.08 irradiance=1 Pmpp=0.9 %cutin=0.1 %cutout=0.1
New PVSystem.PV_75 phases=1 bus1=G2101KA6200_N300623_sec_13.1 kV=0.24 kVA=3.84 irradiance=1 Pmpp=3.2 %cutin=0.1 %cutout=0.1
New PVSystem.PV_76 phases=1 bus1=G2101KO9100_N301061_sec_1.3 kV=0.24 kVA=4.2431 irradiance=1 Pmpp=3.5359 %cutin=0.1 %cutout=0.1
New PVSystem.PV_77 phases=1 bus1=G2101PB7100_N300674_sec_6.1 kV=0.24 kVA=3.24 irradiance=1 Pmpp=2.7 %cutin=0.1 %cutout=0.1
New PVSystem.PV_78 phases=1 bus1=G2101PC8800_N300762_sec_1.3 kV=0.24 kVA=1.92 irradiance=1 Pmpp=1.6 %cutin=0.1 %cutout=0.1
New PVSystem.PV_79 phases=1 bus1=G2000SK5500_N274137_sec_2.2 kV=0.24 kVA=10.92 irradiance=1 Pmpp=9.1 %cutin=0.1 %cutout=0.1
New PVSystem.PV_80 phases=1 bus1=G2000XN9200_N283851_sec_2.3 kV=0.24 kVA=2.64 irradiance=1 Pmpp=2.2 %cutin=0.1 %cutout=0.1
New PVSystem.PV_81 phases=1 bus1=G2001RH4100_N274394_sec_1.2 kV=0.24 kVA=0.12 irradiance=1 Pmpp=0.1 %cutin=0.1 %cutout=0.1
New PVSystem.PV_82 phases=1 bus1=G2001RJ3400_N274458_sec_4.2 kV=0.24 kVA=5.16 irradiance=1 Pmpp=4.3 %cutin=0.1 %cutout=0.1
New PVSystem.PV_83 phases=1 bus1=G2001TD6700_N274321_sec_2.3 kV=0.24 kVA=5.4 irradiance=1 Pmpp=4.5 %cutin=0.1 %cutout=0.1
New PVSystem.PV_84 phases=1 bus1=G2001TE3200_N284042_sec_3.3 kV=0.24 kVA=8.04 irradiance=1 Pmpp=6.7 %cutin=0.1 %cutout=0.1
New PVSystem.PV_85 phases=1 bus1=G2001WJ8500_N284214_sec_1.3 kV=0.24 kVA=12.84 irradiance=1 Pmpp=10.7 %cutin=0.1 %cutout=0.1
New PVSystem.PV_86 phases=1 bus1=G2001XE9500_N284003_sec_4.3 kV=0.24 kVA=3.24 irradiance=1 Pmpp=2.7 %cutin=0.1 %cutout=0.1
New PVSystem.PV_87 phases=1 bus1=G2001YN2500_N284289_sec_1.1 kV=0.24 kVA=0 irradiance=1 Pmpp=0 %cutin=0.1 %cutout=0.1
New PVSystem.PV_88 phases=1 bus1=G2100AE9900_N283556_sec_4.3 kV=0.24 kVA=3.36 irradiance=1 Pmpp=2.8 %cutin=0.1 %cutout=0.1
New PVSystem.PV_89 phases=1 bus1=G2100AH8200_N283618_sec_2.3 kV=0.24 kVA=6.1 irradiance=1 Pmpp=5.0834 %cutin=0.1 %cutout=0.1
New PVSystem.PV_90 phases=1 bus1=G2100AL7200_N283775_sec_4.1 kV=0.24 kVA=5.76 irradiance=1 Pmpp=4.8 %cutin=0.1 %cutout=0.1
New PVSystem.PV_91 phases=1 bus1=G2100BE8900_N283564_sec_5.3 kV=0.24 kVA=3.72 irradiance=1 Pmpp=3.1 %cutin=0.1 %cutout=0.1
New PVSystem.PV_92 phases=1 bus1=G2100BJ7400_N283728_sec_8.2 kV=0.24 kVA=6.84 irradiance=1 Pmpp=5.7 %cutin=0.1 %cutout=0.1
New PVSystem.PV_93 phases=1 bus1=G2100BM3700_N283826_sec_1.1 kV=0.24 kVA=3.12 irradiance=1 Pmpp=2.6 %cutin=0.1 %cutout=0.1
New PVSystem.PV_94 phases=1 bus1=G2100CH7400_N283632_sec_15.3 kV=0.24 kVA=2.4 irradiance=1 Pmpp=2 %cutin=0.1 %cutout=0.1
New PVSystem.PV_95 phases=1 bus1=G2100CK4100_N283759_sec_7.2 kV=0.24 kVA=6.84 irradiance=1 Pmpp=5.7 %cutin=0.1 %cutout=0.1
New PVSystem.PV_96 phases=1 bus1=G2100CM0100_N283805_sec_2.1 kV=0.24 kVA=6.12 irradiance=1 Pmpp=5.1 %cutin=0.1 %cutout=0.1
New PVSystem.PV_97 phases=1 bus1=G2100CM6300_N283822_sec_1.3 kV=0.24 kVA=6.48 irradiance=1 Pmpp=5.4 %cutin=0.1 %cutout=0.1
New PVSystem.PV_98 phases=1 bus1=G2100DN4800_N283861_sec_46.3 kV=0.24 kVA=2.76 irradiance=1 Pmpp=2.3 %cutin=0.1 %cutout=0.1
New PVSystem.PV_99 phases=1 bus1=G2100DN4800_N283861_sec_52.3 kV=0.24 kVA=2.16 irradiance=1 Pmpp=1.8 %cutin=0.1 %cutout=0.1
New PVSystem.PV_100 phases=1 bus1=G2100EN2200_N292457_sec_17.3 kV=0.24 kVA=2.28 irradiance=1 Pmpp=1.9 %cutin=0.1 %cutout=0.1
New PVSystem.PV_101 phases=1 bus1=G2100EN2200_N292457_sec_36.3 kV=0.24 kVA=6.6 irradiance=1 Pmpp=5.5 %cutin=0.1 %cutout=0.1
New PVSystem.PV_102 phases=1 bus1=G2100EO2100_N292498_sec_8.3 kV=0.24 kVA=2.88 irradiance=1 Pmpp=2.4 %cutin=0.1 %cutout=0.1
New PVSystem.PV_103 phases=3 conn = delta bus1=G2100FJ4400_N292396_sec_6.1.2.3 kV=0.48 kVA=3.96 irradiance=1 Pmpp=3.3 %cutin=0.1 %cutout=0.1
New PVSystem.PV_104 phases=1 bus1=G2100FK5800_N292373_sec_1.2 kV=0.24 kVA=5.8179 irradiance=1 Pmpp=4.8482 %cutin=0.1 %cutout=0.1
New PVSystem.PV_105 phases=3 conn = delta bus1=G2100GM6700_N292446_sec_3.1.2.3 kV=0.48 kVA=12 irradiance=1 Pmpp=10 %cutin=0.1 %cutout=0.1
New PVSystem.PV_106 phases=1 bus1=G2100GM9700_N292423_sec_27.3 kV=0.24 kVA=3.96 irradiance=1 Pmpp=3.3 %cutin=0.1 %cutout=0.1
New PVSystem.PV_107 phases=1 bus1=G2100HM3200_N292420_sec_15.3 kV=0.24 kVA=2.04 irradiance=1 Pmpp=1.7 %cutin=0.1 %cutout=0.1
New PVSystem.PV_108 phases=1 bus1=G2100HM9900_N292433_sec_23.3 kV=0.24 kVA=3.12 irradiance=1 Pmpp=2.6 %cutin=0.1 %cutout=0.1
New PVSystem.PV_109 phases=1 bus1=G2100HN5600_N292453_sec_42.3 kV=0.24 kVA=3 irradiance=1 Pmpp=2.5 %cutin=0.1 %cutout=0.1
New PVSystem.PV_110 phases=1 bus1=G2100IL1000_N292412_sec_30.3 kV=0.24 kVA=2.16 irradiance=1 Pmpp=1.8 %cutin=0.1 %cutout=0.1
New PVSystem.PV_111 phases=1 bus1=G2100IL1000_N292412_sec_39.3 kV=0.24 kVA=2.64 irradiance=1 Pmpp=2.2 %cutin=0.1 %cutout=0.1
New PVSystem.PV_112 phases=1 bus1=G2100IN2700_N292475_sec_36.3 kV=0.24 kVA=1.56 irradiance=1 Pmpp=1.3 %cutin=0.1 %cutout=0.1
New PVSystem.PV_113 phases=1 bus1=G2100MO0000_N300567_sec_3.1 kV=0.24 kVA=5.76 irradiance=1 Pmpp=4.8 %cutin=0.1 %cutout=0.1
New PVSystem.PV_114 phases=3 conn = delta bus1=G2100NJ9400_N300465_sec_2.1.2.3 kV=0.48 kVA=142.3638 irradiance=1 Pmpp=118.6365 %cutin=0.1 %cutout=0.1
New PVSystem.PV_115 phases=1 bus1=G2100NM4100_N300509_sec_7.1 kV=0.24 kVA=3.48 irradiance=1 Pmpp=2.9 %cutin=0.1 %cutout=0.1
New PVSystem.PV_116 phases=1 bus1=G2100OM2900_N300514_sec_1.1 kV=0.24 kVA=7.2 irradiance=1 Pmpp=6 %cutin=0.1 %cutout=0.1
New PVSystem.PV_117 phases=1 bus1=G2100OM2900_N300514_sec_3.1 kV=0.24 kVA=3.36 irradiance=1 Pmpp=2.8 %cutin=0.1 %cutout=0.1
New PVSystem.PV_118 phases=1 bus1=G2100QM7500_N300522_sec_7.3 kV=0.24 kVA=3.24 irradiance=1 Pmpp=2.7 %cutin=0.1 %cutout=0.1
New PVSystem.PV_119 phases=1 bus1=G2100QP9600_N300587_sec_4.2 kV=0.24 kVA=3.72 irradiance=1 Pmpp=3.1 %cutin=0.1 %cutout=0.1
New PVSystem.PV_120 phases=1 bus1=G2100RL8500_N312282_sec_2.2 kV=0.24 kVA=4.92 irradiance=1 Pmpp=4.1 %cutin=0.1 %cutout=0.1
New PVSystem.PV_121 phases=1 bus1=G2100RN0300_N300550_sec_3.3 kV=0.24 kVA=3 irradiance=1 Pmpp=2.5 %cutin=0.1 %cutout=0.1
New PVSystem.PV_122 phases=1 bus1=G2100RO0400_N300576_sec_7.3 kV=0.24 kVA=3 irradiance=1 Pmpp=2.5 %cutin=0.1 %cutout=0.1
New PVSystem.PV_123 phases=1 bus1=G2100RO6900_N312512_sec_6.3 kV=0.24 kVA=5.88 irradiance=1 Pmpp=4.9 %cutin=0.1 %cutout=0.1
New PVSystem.PV_124 phases=1 bus1=G2100SO3700_N312462_sec_10.3 kV=0.24 kVA=2.76 irradiance=1 Pmpp=2.3 %cutin=0.1 %cutout=0.1
New PVSystem.PV_125 phases=1 bus1=G2100TO1000_N312424_sec_11.2 kV=0.24 kVA=11.28 irradiance=1 Pmpp=9.4 %cutin=0.1 %cutout=0.1
New PVSystem.PV_126 phases=1 bus1=G2101AB4600_N283913_sec_3.3 kV=0.24 kVA=2.16 irradiance=1 Pmpp=1.8 %cutin=0.1 %cutout=0.1
New PVSystem.PV_127 phases=1 bus1=G2101AC2700_N284001_sec_3.3 kV=0.24 kVA=4.6616 irradiance=1 Pmpp=3.8846 %cutin=0.1 %cutout=0.1
New PVSystem.PV_128 phases=1 bus1=G2101BB3500_N283890_sec_3.1 kV=0.24 kVA=12.84 irradiance=1 Pmpp=10.7 %cutin=0.1 %cutout=0.1
New PVSystem.PV_129 phases=1 bus1=G2101BC6900_N283995_sec_2.2 kV=0.24 kVA=7.68 irradiance=1 Pmpp=6.4 %cutin=0.1 %cutout=0.1
New PVSystem.PV_130 phases=1 bus1=G2101DC0100_N283946_sec_6.1 kV=0.24 kVA=6.84 irradiance=1 Pmpp=5.7 %cutin=0.1 %cutout=0.1
New PVSystem.PV_131 phases=1 bus1=G2101EH8800_N292737_sec_2.2 kV=0.24 kVA=9.2737 irradiance=1 Pmpp=7.7281 %cutin=0.1 %cutout=0.1
New PVSystem.PV_132 phases=1 bus1=G2101FC8400_N292612_sec_6.2 kV=0.24 kVA=4.08 irradiance=1 Pmpp=3.4 %cutin=0.1 %cutout=0.1
New PVSystem.PV_133 phases=1 bus1=G2101FE1400_N292665_sec_7.1 kV=0.24 kVA=5.16 irradiance=1 Pmpp=4.3 %cutin=0.1 %cutout=0.1
New PVSystem.PV_134 phases=1 bus1=G2101FO4700_N292875_sec_3.2 kV=0.24 kVA=7.8643 irradiance=1 Pmpp=6.5536 %cutin=0.1 %cutout=0.1
New PVSystem.PV_135 phases=1 bus1=G2101GC3200_N292623_sec_6.1 kV=0.24 kVA=3.36 irradiance=1 Pmpp=2.8 %cutin=0.1 %cutout=0.1
New PVSystem.PV_136 phases=1 bus1=G2101GC3200_N292623_sec_13.1 kV=0.24 kVA=3.6 irradiance=1 Pmpp=3 %cutin=0.1 %cutout=0.1
New PVSystem.PV_137 phases=1 bus1=G2101GC3200_N292623_sec_20.1 kV=0.24 kVA=3.72 irradiance=1 Pmpp=3.1 %cutin=0.1 %cutout=0.1
New PVSystem.PV_138 phases=1 bus1=G2101GC3400_N292625_sec_14.1 kV=0.24 kVA=4.44 irradiance=1 Pmpp=3.7 %cutin=0.1 %cutout=0.1
New PVSystem.PV_139 phases=1 bus1=G2101GD1300_N292637_sec_15.1 kV=0.24 kVA=3 irradiance=1 Pmpp=2.5 %cutin=0.1 %cutout=0.1
New PVSystem.PV_140 phases=1 bus1=G2101GD5100_N292637_sec_16.1 kV=0.24 kVA=3.6 irradiance=1 Pmpp=3 %cutin=0.1 %cutout=0.1
New PVSystem.PV_141 phases=1 bus1=G2101GD6200_N292642_sec_9.1 kV=0.24 kVA=2.64 irradiance=1 Pmpp=2.2 %cutin=0.1 %cutout=0.1
New PVSystem.PV_142 phases=1 bus1=G2101HB3500_N292585_sec_5.1 kV=0.24 kVA=7.44 irradiance=1 Pmpp=6.2 %cutin=0.1 %cutout=0.1
New PVSystem.PV_143 phases=1 bus1=G2101HD3500_N292652_sec_8.1 kV=0.24 kVA=1.92 irradiance=1 Pmpp=1.6 %cutin=0.1 %cutout=0.1
New PVSystem.PV_144 phases=1 bus1=G2101HJ1200_N292801_sec_1.2 kV=0.24 kVA=8.2094 irradiance=1 Pmpp=6.8412 %cutin=0.1 %cutout=0.1
New PVSystem.PV_145 phases=1 bus1=G2101HJ9800_N292805_sec_3.3 kV=0.24 kVA=1.993 irradiance=1 Pmpp=1.6608 %cutin=0.1 %cutout=0.1
New PVSystem.PV_146 phases=1 bus1=G2101II8600_N292779_sec_1.3 kV=0.24 kVA=7.109 irradiance=1 Pmpp=5.9241 %cutin=0.1 %cutout=0.1
New PVSystem.PV_147 phases=1 bus1=G2101IJ8600_N292802_sec_2.3 kV=0.24 kVA=3.96 irradiance=1 Pmpp=3.3 %cutin=0.1 %cutout=0.1
New PVSystem.PV_148 phases=1 bus1=G2101JF1200_N292702_sec_6.1 kV=0.24 kVA=8.64 irradiance=1 Pmpp=7.2 %cutin=0.1 %cutout=0.1
New PVSystem.PV_149 phases=1 bus1=G2101KA0900_N300672_sec_5.1 kV=0.24 kVA=3.24 irradiance=1 Pmpp=2.7 %cutin=0.1 %cutout=0.1
New PVSystem.PV_150 phases=1 bus1=G2101KA2300_N300631_sec_21.1 kV=0.24 kVA=3.6 irradiance=1 Pmpp=3 %cutin=0.1 %cutout=0.1
New PVSystem.PV_151 phases=1 bus1=G2101KA6800_N300662_sec_2.1 kV=0.24 kVA=2.28 irradiance=1 Pmpp=1.9 %cutin=0.1 %cutout=0.1
New PVSystem.PV_152 phases=1 bus1=G2101PB3000_N300676_sec_3.1 kV=0.24 kVA=2.88 irradiance=1 Pmpp=2.4 %cutin=0.1 %cutout=0.1
New PVSystem.PV_153 phases=1 bus1=G2101RB6300_N312566_sec_4.1 kV=0.24 kVA=3.48 irradiance=1 Pmpp=2.9 %cutin=0.1 %cutout=0.1
New PVSystem.PV_154 phases=1 bus1=G2101SB1800_N312602_sec_6.1 kV=0.24 kVA=3.84 irradiance=1 Pmpp=3.2 %cutin=0.1 %cutout=0.1
New PVSystem.PV_155 phases=1 bus1=G2101TB9300_N312558_sec_4.2 kV=0.24 kVA=5.64 irradiance=1 Pmpp=4.7 %cutin=0.1 %cutout=0.1
New PVSystem.PV_156 phases=1 bus1=G2000SK5500_N274137_sec_8.2 kV=0.24 kVA=6.72 irradiance=1 Pmpp=5.6 %cutin=0.1 %cutout=0.1
New PVSystem.PV_157 phases=1 bus1=G2000SO1800_N274227_sec_1.3 kV=0.24 kVA=3.9198 irradiance=1 Pmpp=3.2665 %cutin=0.1 %cutout=0.1
New PVSystem.PV_158 phases=1 bus1=G2000UJ3600_N283731_sec_1.2 kV=0.24 kVA=5.64 irradiance=1 Pmpp=4.7 %cutin=0.1 %cutout=0.1
New PVSystem.PV_159 phases=1 bus1=G2000VL8700_N283799_sec_1.3 kV=0.24 kVA=4.08 irradiance=1 Pmpp=3.4 %cutin=0.1 %cutout=0.1
New PVSystem.PV_160 phases=1 bus1=G2000WL9300_N283779_sec_2.2 kV=0.24 kVA=8.4 irradiance=1 Pmpp=7 %cutin=0.1 %cutout=0.1
New PVSystem.PV_161 phases=1 bus1=G2000WM6400_N283824_sec_5.3 kV=0.24 kVA=2.76 irradiance=1 Pmpp=2.3 %cutin=0.1 %cutout=0.1
New PVSystem.PV_162 phases=1 bus1=G2001QN1400_N274536_sec_1.2 kV=0.24 kVA=6.7756 irradiance=1 Pmpp=5.6464 %cutin=0.1 %cutout=0.1
New PVSystem.PV_163 phases=1 bus1=G2001RH4100_N274394_sec_8.2 kV=0.24 kVA=6.12 irradiance=1 Pmpp=5.1 %cutin=0.1 %cutout=0.1
New PVSystem.PV_164 phases=1 bus1=G2001SH3700_N274411_sec_9.1 kV=0.24 kVA=0.96 irradiance=1 Pmpp=0.8 %cutin=0.1 %cutout=0.1
New PVSystem.PV_165 phases=1 bus1=G2001SI2800_N274447_sec_4.1 kV=0.24 kVA=6.12 irradiance=1 Pmpp=5.1 %cutin=0.1 %cutout=0.1
New PVSystem.PV_166 phases=1 bus1=G2001UD7700_N284028_sec_1.3 kV=0.24 kVA=7.9556 irradiance=1 Pmpp=6.6297 %cutin=0.1 %cutout=0.1
New PVSystem.PV_167 phases=1 bus1=G2001UK8700_N284232_sec_2.2 kV=0.24 kVA=10.92 irradiance=1 Pmpp=9.1 %cutin=0.1 %cutout=0.1
New PVSystem.PV_168 phases=1 bus1=G2001WC3900_N284043_sec_1.3 kV=0.24 kVA=1.2 irradiance=1 Pmpp=1 %cutin=0.1 %cutout=0.1
New PVSystem.PV_169 phases=1 bus1=G2001WC3900_N284043_sec_4.3 kV=0.24 kVA=6.6 irradiance=1 Pmpp=5.5 %cutin=0.1 %cutout=0.1
New PVSystem.PV_170 phases=1 bus1=G2001YN2300_N284286_sec_3.1 kV=0.24 kVA=11.64 irradiance=1 Pmpp=9.7 %cutin=0.1 %cutout=0.1
New PVSystem.PV_171 phases=1 bus1=G2100AE4800_N283558_sec_4.3 kV=0.24 kVA=2.88 irradiance=1 Pmpp=2.4 %cutin=0.1 %cutout=0.1
New PVSystem.PV_172 phases=1 bus1=G2100AF5900_N283577_sec_6.3 kV=0.24 kVA=3.96 irradiance=1 Pmpp=3.3 %cutin=0.1 %cutout=0.1
New PVSystem.PV_173 phases=1 bus1=G2100AG2100_N283585_sec_1.3 kV=0.24 kVA=3 irradiance=1 Pmpp=2.5 %cutin=0.1 %cutout=0.1
New PVSystem.PV_174 phases=1 bus1=G2100AL1800_N283798_sec_4.1 kV=0.24 kVA=6.12 irradiance=1 Pmpp=5.1 %cutin=0.1 %cutout=0.1
New PVSystem.PV_175 phases=1 bus1=G2100AN3400_N283862_sec_1.3 kV=0.24 kVA=2.64 irradiance=1 Pmpp=2.2 %cutin=0.1 %cutout=0.1
New PVSystem.PV_176 phases=1 bus1=G2100BP7000_N283874_sec_3.3 kV=0.24 kVA=5.4 irradiance=1 Pmpp=4.5 %cutin=0.1 %cutout=0.1
New PVSystem.PV_177 phases=1 bus1=G2100CG0300_N283590_sec_4.3 kV=0.24 kVA=3 irradiance=1 Pmpp=2.5 %cutin=0.1 %cutout=0.1
New PVSystem.PV_178 phases=1 bus1=G2100CG0300_N283590_sec_8.3 kV=0.24 kVA=2.88 irradiance=1 Pmpp=2.4 %cutin=0.1 %cutout=0.1
New PVSystem.PV_179 phases=1 bus1=G2100CI1500_N283687_sec_2.2 kV=0.24 kVA=10.44 irradiance=1 Pmpp=8.7 %cutin=0.1 %cutout=0.1
New PVSystem.PV_180 phases=1 bus1=G2100CL7400_N283783_sec_3.1 kV=0.24 kVA=4.6356 irradiance=1 Pmpp=3.863 %cutin=0.1 %cutout=0.1
New PVSystem.PV_181 phases=1 bus1=G2100DG6300_N283589_sec_8.3 kV=0.24 kVA=3.12 irradiance=1 Pmpp=2.6 %cutin=0.1 %cutout=0.1
New PVSystem.PV_182 phases=1 bus1=G2100DJ0100_N283721_sec_2.2 kV=0.24 kVA=6.6537 irradiance=1 Pmpp=5.5447 %cutin=0.1 %cutout=0.1
New PVSystem.PV_183 phases=1 bus1=G2100DJ0100_N283721_sec_7.2 kV=0.24 kVA=15.9306 irradiance=1 Pmpp=13.2755 %cutin=0.1 %cutout=0.1
New PVSystem.PV_184 phases=1 bus1=G2100EK8800_N292347_sec_15.2 kV=0.24 kVA=10.8 irradiance=1 Pmpp=9 %cutin=0.1 %cutout=0.1
New PVSystem.PV_185 phases=1 bus1=G2100EN2200_N292457_sec_8.3 kV=0.24 kVA=0.12 irradiance=1 Pmpp=0.1 %cutin=0.1 %cutout=0.1
New PVSystem.PV_186 phases=1 bus1=G2100EN2200_N292457_sec_19.3 kV=0.24 kVA=2.52 irradiance=1 Pmpp=2.1 %cutin=0.1 %cutout=0.1
New PVSystem.PV_187 phases=1 bus1=G2100EN8600_N292479_sec_3.3 kV=0.24 kVA=1.44 irradiance=1 Pmpp=1.2 %cutin=0.1 %cutout=0.1
New PVSystem.PV_188 phases=1 bus1=G2100EO1300_N292510_sec_5.3 kV=0.24 kVA=1.56 irradiance=1 Pmpp=1.3 %cutin=0.1 %cutout=0.1
New PVSystem.PV_189 phases=1 bus1=G2100EO2100_N292498_sec_16.3 kV=0.24 kVA=2.28 irradiance=1 Pmpp=1.9 %cutin=0.1 %cutout=0.1
New PVSystem.PV_190 phases=1 bus1=G2100FI2200_N292320_sec_7.2 kV=0.24 kVA=3.7089 irradiance=1 Pmpp=3.0907 %cutin=0.1 %cutout=0.1
New PVSystem.PV_191 phases=3 conn = delta bus1=G2100FJ3800_N292380_sec_5.1.2.3 kV=0.48 kVA=12 irradiance=1 Pmpp=10 %cutin=0.1 %cutout=0.1
New PVSystem.PV_192 phases=3 conn = delta bus1=G2100FN7600_N292486_sec_4.1.2.3 kV=0.48 kVA=33.36 irradiance=1 Pmpp=27.8 %cutin=0.1 %cutout=0.1
New PVSystem.PV_193 phases=1 bus1=G2100FO1600_N292502_sec_17.3 kV=0.24 kVA=0.24 irradiance=1 Pmpp=0.2 %cutin=0.1 %cutout=0.1
New PVSystem.PV_194 phases=1 bus1=G2100FO1700_N292522_sec_2.3 kV=0.24 kVA=1.44 irradiance=1 Pmpp=1.2 %cutin=0.1 %cutout=0.1
New PVSystem.PV_195 phases=1 bus1=G2100GN2400_N292466_sec_1.1 kV=0.24 kVA=3.72 irradiance=1 Pmpp=3.1 %cutin=0.1 %cutout=0.1
New PVSystem.PV_196 phases=1 bus1=G2100GN4600_N292459_sec_2.1 kV=0.24 kVA=14.5866 irradiance=1 Pmpp=12.1555 %cutin=0.1 %cutout=0.1
New PVSystem.PV_197 phases=1 bus1=G2100HM3200_N292420_sec_28.3 kV=0.24 kVA=2.4 irradiance=1 Pmpp=2 %cutin=0.1 %cutout=0.1
New PVSystem.PV_198 phases=1 bus1=G2100HM9900_N292433_sec_15.3 kV=0.24 kVA=2.04 irradiance=1 Pmpp=1.7 %cutin=0.1 %cutout=0.1
New PVSystem.PV_199 phases=3 conn = delta bus1=G2100HN4000_N292484_sec_2.1.2.3 kV=0.48 kVA=14.76 irradiance=1 Pmpp=12.3 %cutin=0.1 %cutout=0.1
New PVSystem.PV_200 phases=1 bus1=G2100HN5600_N292453_sec_19.3 kV=0.24 kVA=0.36 irradiance=1 Pmpp=0.3 %cutin=0.1 %cutout=0.1
...
